Circuit: *** SPICE deck for cell inverter{sch} from library Project

Direct Newton iteration for .op point succeeded.

Date: Thu Jul 06 08:41:18 2023
Total elapsed time: 0.071 seconds.

tnom = 27
temp = 27
method = modified trap
totiter = 2565
traniter = 2559
tranpoints = 1262
accept = 1215
rejected = 47
matrix size = 13
fillins = 0
solver = Normal
Matrix Compiler1: 996 bytes object code size  0.3/0.2/[0.1]
Matrix Compiler2: 1.30 KB object code size  0.1/0.2/[0.1]

