Circuit: *** SPICE deck for cell nand{sch} from library Project

Direct Newton iteration for .op point succeeded.

Date: Thu Jul 06 08:49:54 2023
Total elapsed time: 3.653 seconds.

tnom = 27
temp = 27
method = modified trap
totiter = 126976
traniter = 126961
tranpoints = 53286
accept = 46408
rejected = 6878
matrix size = 90
fillins = 2
solver = Normal
Matrix Compiler1: 9.88 KB object code size  2.7/1.6/[0.7]
Matrix Compiler2: 10.94 KB object code size  1.2/1.8/[1.1]

